                                   MODFLOW 6
                U.S. GEOLOGICAL SURVEY MODULAR HYDROLOGIC MODEL
                          GROUNDWATER FLOW MODEL (GWF)
                            VERSION 6.1.1 06/12/2020

   MODFLOW 6 compiled Jun 11 2020 17:47:19 with IFORT compiler (ver. 19.10.0)

This software has been approved for release by the U.S. Geological 
Survey (USGS). Although the software has been subjected to rigorous 
review, the USGS reserves the right to update the software as needed 
pursuant to further analysis and review. No warranty, expressed or 
implied, is made by the USGS or the U.S. Government as to the 
functionality of the software and related material nor shall the 
fact of release constitute any such warranty. Furthermore, the 
software is released on condition that neither the USGS nor the U.S. 
Government shall be held liable for any damages resulting from its 
authorized or unauthorized use. Also refer to the USGS Water 
Resources Software User Rights Notice for complete use, copyright, 
and distribution information.


MODFLOW was compiled using uniform precision.
Precision of REAL variables: 15


 OPENED tutorial01_mf6.dis
 FILE TYPE:DIS6                   UNIT 1005   STATUS:OLD                 
 FORMAT:FORMATTED              ACCESS:SEQUENTIAL          
 ACTION:READ                


 OPENED tutorial01_mf6.ic
 FILE TYPE:IC6                    UNIT 1006   STATUS:OLD                 
 FORMAT:FORMATTED              ACCESS:SEQUENTIAL          
 ACTION:READ                


 OPENED tutorial01_mf6.npf
 FILE TYPE:NPF6                   UNIT 1007   STATUS:OLD                 
 FORMAT:FORMATTED              ACCESS:SEQUENTIAL          
 ACTION:READ                


 OPENED tutorial01_mf6.chd
 FILE TYPE:CHD6                   UNIT 1008   STATUS:OLD                 
 FORMAT:FORMATTED              ACCESS:SEQUENTIAL          
 ACTION:READ                


 OPENED tutorial01_mf6.wel
 FILE TYPE:WEL6                   UNIT 1009   STATUS:OLD                 
 FORMAT:FORMATTED              ACCESS:SEQUENTIAL          
 ACTION:READ                


 OPENED tutorial01_mf6.oc
 FILE TYPE:OC6                    UNIT 1010   STATUS:OLD                 
 FORMAT:FORMATTED              ACCESS:SEQUENTIAL          
 ACTION:READ                

 NAMEFILE OPTIONS:
    FLOWS WILL BE SAVED TO BUDGET FILE SPECIFIED IN OUTPUT CONTROL
    NEWTON-RAPHSON method enabled for the model.
    NEWTON-RAPHSON UNDER-RELAXATION based on the bottom elevation of the model will be applied to the model.

 DIS -- STRUCTURED GRID DISCRETIZATION PACKAGE, VERSION 2 : 3/27/2014 - INPUT READ FROM UNIT 1005


 # File generated by Flopy version 3.3.4 on 06/17/2022 at 13:28:16.
 PROCESSING DISCRETIZATION OPTIONS
 END OF DISCRETIZATION OPTIONS
 MODEL LENGTH UNIT IS UNDEFINED
 PROCESSING DISCRETIZATION DIMENSIONS
    NLAY =      10
    NROW =     101
    NCOL =     101
 END OF DISCRETIZATION DIMENSIONS
 PROCESSING GRIDDATA

                     DELR =   4.000000    

                     DELC =   4.000000    

 TOP ELEVATION OF LAYER 1 =   0.000000    

   MODEL LAYER BOTTOM EL. =  -5.000000     FOR LAYER 1

   MODEL LAYER BOTTOM EL. =  -10.00000     FOR LAYER 2

   MODEL LAYER BOTTOM EL. =  -15.00000     FOR LAYER 3

   MODEL LAYER BOTTOM EL. =  -20.00000     FOR LAYER 4

   MODEL LAYER BOTTOM EL. =  -25.00000     FOR LAYER 5

   MODEL LAYER BOTTOM EL. =  -30.00000     FOR LAYER 6

   MODEL LAYER BOTTOM EL. =  -35.00000     FOR LAYER 7

   MODEL LAYER BOTTOM EL. =  -40.00000     FOR LAYER 8

   MODEL LAYER BOTTOM EL. =  -45.00000     FOR LAYER 9

   MODEL LAYER BOTTOM EL. =  -50.00000     FOR LAYER 10
 END PROCESSING GRIDDATA

 NPF -- NODE PROPERTY FLOW PACKAGE, VERSION 1, 3/30/2015 INPUT READ FROM UNIT 1007


 # File generated by Flopy version 3.3.4 on 06/17/2022 at 13:28:17.
 PROCESSING NPF OPTIONS
 END OF NPF OPTIONS

 WEL   -- WEL PACKAGE, VERSION 8, 2/22/2014 INPUT READ FROM UNIT 1009
 # File generated by Flopy version 3.3.4 on 06/17/2022 at 13:28:17.

 PROCESSING WEL OPTIONS
 END OF WEL OPTIONS

 PROCESSING WEL DIMENSIONS
    MAXBOUND =       1
 END OF WEL DIMENSIONS

 CHD   -- CHD PACKAGE, VERSION 8, 2/22/2014 INPUT READ FROM UNIT 1008
 # File generated by Flopy version 3.3.4 on 06/17/2022 at 13:28:17.

 PROCESSING CHD OPTIONS
 END OF CHD OPTIONS

 PROCESSING CHD DIMENSIONS
    MAXBOUND =     400
 END OF CHD DIMENSIONS

 IC -- INITIAL CONDITIONS PACKAGE, VERSION 8, 3/28/2015 INPUT READ FROM UNIT 1006
 # File generated by Flopy version 3.3.4 on 06/17/2022 at 13:28:16.
 PROCESSING GRIDDATA
 END PROCESSING GRIDDATA
 PROCESSING GRIDDATA

                ICELLTYPE = 1

                        K =   1.000000    
 K33 not provided.  Assuming K33 = K.
 K22 not provided.  Assuming K22 = K.
 END PROCESSING GRIDDATA
    BINARY GRID INFORMATION WILL BE WRITTEN TO:
      UNIT NUMBER: 1012
      FILE NAME: C:\Users\User\Documents\work\gw_modeling\tutorial01_mf6.dis.grb

 OPENED C:\Users\User\Documents\work\gw_modeling\tutorial01_mf6.dis.grb
 FILE TYPE:DATA(BINARY)   UNIT 1012   STATUS:REPLACE             
 FORMAT:UNFORMATTED            ACCESS:STREAM              
 ACTION:READWRITE           

      THE LAST TIME STEP WILL BE PRINTED
      THE LAST TIME STEP WILL BE PRINTED
 # File generated by Flopy version 3.3.4 on 06/17/2022 at 13:28:17.

 PROCESSING OC OPTIONS

    BUDGET INFORMATION WILL BE WRITTEN TO:
      UNIT NUMBER: 1013
      FILE NAME: tutorial01_mf6.cbb

 OPENED tutorial01_mf6.cbb
 FILE TYPE:DATA(BINARY)   UNIT 1013   STATUS:REPLACE             
 FORMAT:UNFORMATTED            ACCESS:STREAM              
 ACTION:READWRITE           

    HEAD INFORMATION WILL BE WRITTEN TO:
      UNIT NUMBER: 1014
      FILE NAME: tutorial01_mf6.hds

 OPENED tutorial01_mf6.hds
 FILE TYPE:DATA(BINARY)   UNIT 1014   STATUS:REPLACE             
 FORMAT:UNFORMATTED            ACCESS:STREAM              
 ACTION:READWRITE           

 END OF OC OPTIONS

start timestep kper="1" kstp="1" mode="normal"


 BEGIN READING OUTPUT CONTROL FOR STRESS PERIOD 1
      ALL TIME STEPS WILL BE SAVED
      ALL TIME STEPS WILL BE SAVED
      THE LAST TIME STEP WILL BE PRINTED

 END READING OUTPUT CONTROL FOR STRESS PERIOD 1
 UBDSV1 SAVING     FLOW-JA-FACE ON UNIT   1013 AT TIME STEP      1, STRESS PERIOD      1
 UBDSV06 SAVING              WEL IN MODEL TUTORIAL01_MF6   PACKAGE TUTORIAL01_MF6  CONNECTED TO MODEL TUTORIAL01_MF6   PACKAGE WEL_0            ON UNIT   1013 AT TIME STEP      1, STRESS PERIOD      1
 UBDSV06 SAVING              CHD IN MODEL TUTORIAL01_MF6   PACKAGE TUTORIAL01_MF6  CONNECTED TO MODEL TUTORIAL01_MF6   PACKAGE CHD_0            ON UNIT   1013 AT TIME STEP      1, STRESS PERIOD      1
1
  HEAD IN LAYER   1 AT END OF TIME STEP   1 IN STRESS PERIOD    1
  ---------------------------------------------------------------------------

            1           2           3           4           5           6           7           8           9          10
           11          12          13          14          15          16          17          18          19          20
           21          22          23          24          25          26          27          28          29          30
           31          32          33          34          35          36          37          38          39          40
           41          42          43          44          45          46          47          48          49          50
           51          52          53          54          55          56          57          58          59          60
           61          62          63          64          65          66          67          68          69          70
           71          72          73          74          75          76          77          78          79          80
           81          82          83          84          85          86          87          88          89          90
           91          92          93          94          95          96          97          98          99         100
          101
 ........................................................................................................................
   1    100.0       100.0       100.0       100.0       100.0       100.0       100.0       100.0       100.0       100.0    
        100.0       100.0       100.0       100.0       100.0       100.0       100.0       100.0       100.0       100.0    
        100.0       100.0       100.0       100.0       100.0       100.0       100.0       100.0       100.0       100.0    
        100.0       100.0       100.0       100.0       100.0       100.0       100.0       100.0       100.0       100.0    
        100.0       100.0       100.0       100.0       100.0       100.0       100.0       100.0       100.0       100.0    
        100.0       100.0       100.0       100.0       100.0       100.0       100.0       100.0       100.0       100.0    
        100.0       100.0       100.0       100.0       100.0       100.0       100.0       100.0       100.0       100.0    
        100.0       100.0       100.0       100.0       100.0       100.0       100.0       100.0       100.0       100.0    
        100.0       100.0       100.0       100.0       100.0       100.0       100.0       100.0       100.0       100.0    
        100.0       100.0       100.0       100.0       100.0       100.0       100.0       100.0       100.0       100.0    
        100.0    
   2    100.0       99.80       99.70       99.63       99.58       99.54       99.51       99.47       99.45       99.42    
        99.39       99.37       99.35       99.32       99.30       99.28       99.26       99.24       99.23       99.21    
        99.20       99.19       99.18       99.17       99.16       99.16       99.16       99.16       99.16       99.17    
        99.17       99.18       99.19       99.20       99.22       99.23       99.24       99.26       99.28       99.29    
        99.31       99.33       99.35       99.36       99.38       99.40       99.42       99.44       99.45       99.47    
        99.49       99.50       99.52       99.54       99.55       99.57       99.58       99.60       99.61       99.62    
        99.64       99.65       99.66       99.67       99.69       99.70       99.71       99.72       99.73       99.74    
        99.75       99.76       99.77       99.77       99.78       99.79       99.80       99.81       99.81       99.82    
        99.83       99.84       99.84       99.85       99.85       99.86       99.87       99.87       99.88       99.88    
        99.89       99.90       99.90       99.91       99.91       99.92       99.93       99.93       99.95       99.97    
        100.0    
   3    100.0       99.70       99.52       99.40       99.32       99.25       99.19       99.14       99.09       99.04    
        99.00       98.96       98.92       98.88       98.85       98.81       98.78       98.75       98.72       98.70    
        98.67       98.65       98.64       98.63       98.62       98.61       98.61       98.61       98.61       98.62    
        98.63       98.65       98.66       98.68       98.70       98.72       98.75       98.78       98.80       98.83    
        98.86       98.89       98.92       98.95       98.98       99.01       99.04       99.07       99.10       99.13    
        99.16       99.18       99.21       99.24       99.26       99.29       99.31       99.34       99.36       99.38    
        99.40       99.42       99.44       99.46       99.48       99.50       99.52       99.54       99.55       99.57    
        99.58       99.60       99.61       99.63       99.64       99.66       99.67       99.68       99.69       99.71    
        99.72       99.73       99.74       99.75       99.76       99.77       99.78       99.79       99.80       99.81    
        99.82       99.83       99.84       99.85       99.86       99.87       99.88       99.90       99.92       99.95    
        100.0    
   4    100.0       99.63       99.40       99.25       99.14       99.05       98.97       98.90       98.83       98.77    
        98.71       98.66       98.61       98.56       98.51       98.47       98.42       98.38       98.35       98.32    
        98.29       98.26       98.24       98.22       98.21       98.20       98.20       98.20       98.21       98.22    
        98.23       98.25       98.27       98.30       98.32       98.35       98.39       98.42       98.46       98.49    
        98.53       98.57       98.61       98.65       98.69       98.73       98.77       98.80       98.84       98.88    
        98.91       98.95       98.98       99.02       99.05       99.08       99.12       99.15       99.18       99.20    
        99.23       99.26       99.29       99.31       99.33       99.36       99.38       99.40       99.43       99.45    
        99.47       99.49       99.51       99.52       99.54       99.56       99.58       99.59       99.61       99.62    
        99.64       99.65       99.67       99.68       99.69       99.71       99.72       99.73       99.74       99.76    
        99.77       99.78       99.79       99.80       99.82       99.83       99.85       99.87       99.90       99.94    
        100.0    
   5    100.0       99.58       99.32       99.14       99.00       98.89       98.79       98.71       98.63       98.56    
        98.49       98.42       98.36       98.30       98.24       98.19       98.14       98.09       98.05       98.01    
        97.97       97.94       97.92       97.90       97.88       97.87       97.87       97.87       97.88       97.89    
        97.91       97.93       97.96       97.99       98.02       98.06       98.10       98.14       98.18       98.23    
        98.27       98.32       98.36       98.41       98.46       98.50       98.55       98.59       98.64       98.68    
        98.73       98.77       98.81       98.85       98.89       98.93       98.96       99.00       99.03       99.07    
        99.10       99.13       99.16       99.19       99.22       99.25       99.27       99.30       99.33       99.35    
        99.37       99.40       99.42       99.44       99.46       99.48       99.50       99.52       99.54       99.56    
        99.57       99.59       99.61       99.62       99.64       99.66       99.67       99.68       99.70       99.71    
        99.73       99.74       99.76       99.77       99.79       99.81       99.83       99.85       99.88       99.93    
        100.0    
   6    100.0       99.54       99.25       99.05       98.89       98.76       98.65       98.55       98.46       98.38    
        98.30       98.22       98.15       98.08       98.02       97.95       97.90       97.84       97.79       97.74    
        97.70       97.67       97.64       97.62       97.60       97.59       97.58       97.59       97.60       97.61    
        97.63       97.66       97.69       97.72       97.76       97.80       97.85       97.90       97.95       98.00    
        98.05       98.10       98.16       98.21       98.26       98.32       98.37       98.42       98.47       98.52    
        98.57       98.62       98.66       98.71       98.75       98.79       98.83       98.88       98.91       98.95    
        98.99       99.02       99.06       99.09       99.12       99.16       99.19       99.22       99.24       99.27    
        99.30       99.32       99.35       99.37       99.40       99.42       99.44       99.46       99.48       99.50    
        99.52       99.54       99.56       99.58       99.60       99.61       99.63       99.65       99.66       99.68    
        99.70       99.71       99.73       99.75       99.76       99.78       99.81       99.83       99.87       99.92    
        100.0    
   7    100.0       99.51       99.19       98.97       98.79       98.65       98.53       98.42       98.32       98.22    
        98.13       98.05       97.97       97.89       97.82       97.75       97.68       97.62       97.56       97.51    
        97.46       97.42       97.39       97.36       97.34       97.33       97.33       97.33       97.34       97.36    
        97.38       97.41       97.45       97.49       97.53       97.58       97.63       97.68       97.74       97.80    
        97.86       97.92       97.97       98.03       98.09       98.15       98.21       98.27       98.32       98.38    
        98.43       98.48       98.53       98.58       98.63       98.68       98.73       98.77       98.81       98.85    
        98.89       98.93       98.97       99.01       99.04       99.08       99.11       99.14       99.17       99.20    
        99.23       99.26       99.29       99.32       99.34       99.37       99.39       99.41       99.44       99.46    
        99.48       99.50       99.52       99.54       99.56       99.58       99.60       99.61       99.63       99.65    
        99.67       99.69       99.70       99.72       99.74       99.77       99.79       99.82       99.86       99.91    
        100.0    
   8    100.0       99.47       99.14       98.90       98.71       98.55       98.42       98.30       98.19       98.08    
        97.98       97.89       97.80       97.71       97.63       97.55       97.48       97.41       97.34       97.29    
        97.23       97.19       97.15       97.12       97.10       97.09       97.08       97.09       97.10       97.12    
        97.15       97.18       97.22       97.27       97.32       97.37       97.43       97.49       97.55       97.62    
        97.68       97.75       97.81       97.88       97.94       98.01       98.07       98.13       98.19       98.25    
        98.31       98.37       98.42       98.48       98.53       98.58       98.63       98.68       98.72       98.77    
        98.81       98.85       98.89       98.93       98.97       99.01       99.04       99.08       99.11       99.14    
        99.18       99.21       99.24       99.26       99.29       99.32       99.34       99.37       99.39       99.42    
        99.44       99.46       99.48       99.51       99.53       99.55       99.57       99.59       99.61       99.62    
        99.64       99.66       99.68       99.70       99.73       99.75       99.78       99.81       99.85       99.91    
        100.0    
   9    100.0       99.45       99.09       98.83       98.63       98.46       98.32       98.19       98.06       97.95    
        97.84       97.74       97.64       97.55       97.46       97.37       97.29       97.21       97.14       97.07    
        97.02       96.97       96.93       96.89       96.87       96.85       96.85       96.86       96.87       96.89    
        96.92       96.96       97.01       97.06       97.11       97.18       97.24       97.31       97.37       97.45    
        97.52       97.59       97.66       97.73       97.80       97.87       97.94       98.01       98.07       98.14    
        98.20       98.26       98.32       98.38       98.43       98.49       98.54       98.59       98.64       98.69    
        98.74       98.78       98.82       98.87       98.91       98.95       98.98       99.02       99.06       99.09    
        99.12       99.16       99.19       99.22       99.25       99.28       99.30       99.33       99.36       99.38    
        99.41       99.43       99.45       99.47       99.50       99.52       99.54       99.56       99.58       99.60    
        99.62       99.64       99.66       99.69       99.71       99.74       99.77       99.80       99.84       99.91    
        100.0    
  10    100.0       99.42       99.04       98.77       98.56       98.38       98.22       98.08       97.95       97.83    
        97.71       97.60       97.49       97.39       97.29       97.20       97.10       97.02       96.94       96.87    
        96.81       96.75       96.70       96.67       96.64       96.63       96.62       96.63       96.64       96.67    
        96.71       96.75       96.80       96.86       96.92       96.99       97.06       97.13       97.21       97.28    
        97.36       97.44       97.52       97.60       97.67       97.75       97.82       97.89       97.96       98.03    
        98.10       98.16       98.23       98.29       98.35       98.41       98.46       98.52       98.57       98.62    
        98.67       98.72       98.76       98.81       98.85       98.89       98.93       98.97       99.01       99.04    
        99.08       99.11       99.14       99.18       99.21       99.24       99.27       99.29       99.32       99.35    
        99.37       99.40       99.42       99.45       99.47       99.49       99.52       99.54       99.56       99.58    
        99.60       99.62       99.65       99.67       99.70       99.72       99.75       99.79       99.84       99.90    
        100.0    
  11    100.0       99.39       99.00       98.71       98.49       98.30       98.13       97.98       97.84       97.71    
        97.59       97.47       97.35       97.24       97.13       97.03       96.93       96.83       96.75       96.67    
        96.60       96.53       96.48       96.44       96.42       96.40       96.39       96.40       96.42       96.45    
        96.49       96.54       96.60       96.66       96.73       96.81       96.88       96.96       97.05       97.13    
        97.22       97.30       97.38       97.47       97.55       97.63       97.71       97.79       97.86       97.93    
        98.00       98.07       98.14       98.21       98.27       98.33       98.39       98.44       98.50       98.55    
        98.60       98.65       98.70       98.75       98.79       98.84       98.88       98.92       98.96       99.00    
        99.03       99.07       99.10       99.14       99.17       99.20       99.23       99.26       99.29       99.32    
        99.34       99.37       99.40       99.42       99.45       99.47       99.49       99.52       99.54       99.56    
        99.58       99.61       99.63       99.66       99.68       99.71       99.74       99.78       99.83       99.90    
        100.0    
  12    100.0       99.37       98.96       98.66       98.42       98.22       98.05       97.89       97.74       97.60    
        97.47       97.34       97.21       97.09       96.97       96.86       96.75       96.65       96.55       96.47    
        96.39       96.32       96.26       96.22       96.19       96.17       96.17       96.18       96.20       96.23    
        96.28       96.33       96.40       96.47       96.55       96.63       96.71       96.80       96.89       96.98    
        97.07       97.17       97.26       97.35       97.43       97.52       97.60       97.68       97.76       97.84    
        97.92       97.99       98.06       98.13       98.19       98.26       98.32       98.38       98.44       98.49    
        98.55       98.60       98.65       98.70       98.74       98.79       98.83       98.87       98.92       98.96    
        98.99       99.03       99.07       99.10       99.13       99.17       99.20       99.23       99.26       99.29    
        99.32       99.34       99.37       99.40       99.42       99.45       99.47       99.50       99.52       99.54    
        99.57       99.59       99.62       99.64       99.67       99.70       99.73       99.77       99.82       99.89    
        100.0    
  13    100.0       99.35       98.92       98.61       98.36       98.15       97.97       97.80       97.64       97.49    
        97.35       97.21       97.08       96.95       96.82       96.70       96.58       96.47       96.36       96.27    
        96.18       96.10       96.04       95.99       95.96       95.94       95.94       95.95       95.97       96.01    
        96.06       96.13       96.20       96.28       96.36       96.45       96.55       96.64       96.74       96.84    
        96.94       97.04       97.13       97.23       97.32       97.41       97.50       97.59       97.67       97.75    
        97.83       97.91       97.98       98.05       98.12       98.19       98.25       98.32       98.38       98.43    
        98.49       98.54       98.60       98.65       98.70       98.74       98.79       98.83       98.87       98.92    
        98.96       98.99       99.03       99.07       99.10       99.14       99.17       99.20       99.23       99.26    
        99.29       99.32       99.35       99.37       99.40       99.43       99.45       99.48       99.50       99.53    
        99.55       99.58       99.60       99.63       99.66       99.69       99.73       99.77       99.82       99.89    
        100.0    
  14    100.0       99.32       98.88       98.56       98.30       98.08       97.89       97.71       97.55       97.39    
        97.24       97.09       96.95       96.80       96.67       96.53       96.41       96.28       96.17       96.06    
        95.97       95.89       95.82       95.77       95.73       95.71       95.70       95.72       95.75       95.79    
        95.85       95.92       96.00       96.09       96.18       96.28       96.38       96.49       96.60       96.70    
        96.81       96.91       97.02       97.12       97.22       97.31       97.41       97.50       97.59       97.67    
        97.75       97.83       97.91       97.99       98.06       98.13       98.19       98.26       98.32       98.38    
        98.44       98.50       98.55       98.60       98.65       98.70       98.75       98.79       98.84       98.88    
        98.92       98.96       99.00       99.04       99.07       99.11       99.14       99.17       99.21       99.24    
        99.27       99.30       99.33       99.35       99.38       99.41       99.43       99.46       99.49       99.51    
        99.54       99.56       99.59       99.62       99.65       99.68       99.72       99.76       99.81       99.89    
        100.0    
  15    100.0       99.30       98.85       98.51       98.24       98.02       97.82       97.63       97.46       97.29    
        97.13       96.97       96.82       96.67       96.52       96.38       96.24       96.10       95.98       95.86    
        95.76       95.67       95.59       95.54       95.49       95.47       95.47       95.49       95.52       95.57    
        95.63       95.71       95.80       95.90       96.00       96.11       96.23       96.34       96.45       96.57    
        96.68       96.80       96.91       97.01       97.12       97.22       97.32       97.41       97.51       97.60    
        97.68       97.76       97.84       97.92       98.00       98.07       98.14       98.20       98.27       98.33    
        98.39       98.45       98.50       98.56       98.61       98.66       98.71       98.76       98.80       98.84    
        98.89       98.93       98.97       99.01       99.04       99.08       99.11       99.15       99.18       99.21    
        99.24       99.27       99.30       99.33       99.36       99.39       99.42       99.44       99.47       99.50    
        99.52       99.55       99.58       99.61       99.64       99.67       99.71       99.75       99.81       99.88    
        100.0    
  16    100.0       99.28       98.81       98.47       98.19       97.95       97.75       97.55       97.37       97.20    
        97.03       96.86       96.70       96.53       96.38       96.22       96.07       95.93       95.79       95.66    
        95.55       95.45       95.37       95.30       95.26       95.24       95.23       95.25       95.29       95.35    
        95.42       95.51       95.61       95.71       95.83       95.95       96.07       96.19       96.32       96.44    
        96.56       96.68       96.80       96.91       97.02       97.13       97.23       97.33       97.43       97.52    
        97.61       97.70       97.78       97.86       97.94       98.01       98.08       98.15       98.22       98.28    
        98.35       98.41       98.46       98.52       98.57       98.62       98.67       98.72       98.77       98.81    
        98.86       98.90       98.94       98.98       99.02       99.05       99.09       99.12       99.16       99.19    
        99.22       99.25       99.29       99.31       99.34       99.37       99.40       99.43       99.46       99.48    
        99.51       99.54       99.57       99.60       99.63       99.66       99.70       99.75       99.80       99.88    
        100.0    
  17    100.0       99.26       98.78       98.42       98.14       97.90       97.68       97.48       97.29       97.10    
        96.93       96.75       96.58       96.41       96.24       96.07       95.91       95.75       95.61       95.47    
        95.34       95.23       95.14       95.07       95.02       95.00       95.00       95.02       95.06       95.13    
        95.21       95.31       95.42       95.53       95.66       95.79       95.92       96.06       96.19       96.32    
        96.45       96.58       96.70       96.82       96.93       97.05       97.15       97.26       97.36       97.45    
        97.55       97.64       97.72       97.81       97.89       97.96       98.04       98.11       98.17       98.24    
        98.30       98.36       98.42       98.48       98.54       98.59       98.64       98.69       98.74       98.78    
        98.83       98.87       98.91       98.95       98.99       99.03       99.07       99.10       99.14       99.17    
        99.20       99.24       99.27       99.30       99.33       99.36       99.39       99.41       99.44       99.47    
        99.50       99.53       99.56       99.59       99.62       99.65       99.69       99.74       99.80       99.88    
        100.0    
  18    100.0       99.24       98.75       98.38       98.09       97.84       97.62       97.41       97.21       97.02    
        96.83       96.65       96.47       96.28       96.10       95.93       95.75       95.59       95.43       95.28    
        95.14       95.02       94.92       94.84       94.79       94.76       94.76       94.79       94.84       94.91    
        95.00       95.11       95.23       95.36       95.50       95.64       95.78       95.92       96.06       96.20    
        96.34       96.47       96.60       96.73       96.85       96.97       97.08       97.19       97.29       97.39    
        97.49       97.58       97.67       97.75       97.84       97.91       97.99       98.06       98.13       98.20    
        98.26       98.33       98.39       98.45       98.50       98.56       98.61       98.66       98.71       98.75    
        98.80       98.84       98.89       98.93       98.97       99.01       99.04       99.08       99.12       99.15    
        99.18       99.22       99.25       99.28       99.31       99.34       99.37       99.40       99.43       99.46    
        99.49       99.52       99.55       99.58       99.61       99.65       99.69       99.73       99.79       99.88    
        100.0    
  19    100.0       99.23       98.72       98.35       98.05       97.79       97.56       97.34       97.14       96.94    
        96.75       96.55       96.36       96.17       95.98       95.79       95.61       95.43       95.25       95.09    
        94.94       94.81       94.70       94.62       94.56       94.53       94.53       94.56       94.62       94.70    
        94.80       94.92       95.05       95.19       95.34       95.49       95.65       95.80       95.95       96.10    
        96.24       96.38       96.52       96.65       96.77       96.89       97.01       97.12       97.23       97.33    
        97.43       97.53       97.62       97.70       97.79       97.87       97.95       98.02       98.09       98.16    
        98.23       98.29       98.35       98.41       98.47       98.53       98.58       98.63       98.68       98.73    
        98.77       98.82       98.86       98.90       98.95       98.99       99.02       99.06       99.10       99.13    
        99.17       99.20       99.23       99.26       99.30       99.33       99.36       99.39       99.42       99.45    
        99.48       99.51       99.54       99.57       99.60       99.64       99.68       99.73       99.79       99.87    
        100.0    
  20    100.0       99.21       98.70       98.32       98.01       97.74       97.51       97.29       97.07       96.87    
        96.67       96.47       96.27       96.06       95.86       95.66       95.47       95.28       95.09       94.92    
        94.76       94.61       94.50       94.40       94.34       94.31       94.31       94.35       94.41       94.50    
        94.61       94.74       94.88       95.04       95.20       95.36       95.52       95.68       95.84       96.00    
        96.15       96.30       96.44       96.57       96.70       96.83       96.95       97.06       97.17       97.28    
        97.38       97.48       97.57       97.66       97.75       97.83       97.91       97.98       98.06       98.13    
        98.19       98.26       98.32       98.38       98.44       98.50       98.55       98.60       98.65       98.70    
        98.75       98.80       98.84       98.88       98.92       98.97       99.00       99.04       99.08       99.12    
        99.15       99.18       99.22       99.25       99.28       99.31       99.34       99.37       99.40       99.43    
        99.47       99.50       99.53       99.56       99.59       99.63       99.67       99.72       99.79       99.87    
        100.0    
  21    100.0       99.20       98.67       98.29       97.97       97.70       97.46       97.23       97.02       96.81    
        96.60       96.39       96.18       95.97       95.76       95.55       95.34       95.14       94.94       94.76    
        94.58       94.43       94.30       94.20       94.14       94.10       94.11       94.14       94.21       94.31    
        94.43       94.58       94.73       94.89       95.06       95.24       95.41       95.58       95.75       95.91    
        96.07       96.22       96.36       96.51       96.64       96.77       96.89       97.01       97.12       97.23    
        97.34       97.43       97.53       97.62       97.71       97.79       97.87       97.95       98.02       98.09    
        98.16       98.23       98.29       98.35       98.41       98.47       98.53       98.58       98.63       98.68    
        98.73       98.77       98.82       98.86       98.91       98.95       98.99       99.02       99.06       99.10    
        99.13       99.17       99.20       99.24       99.27       99.30       99.33       99.36       99.39       99.42    
        99.46       99.49       99.52       99.55       99.59       99.63       99.67       99.72       99.78       99.87    
        100.0    
  22    100.0       99.19       98.65       98.26       97.94       97.67       97.42       97.19       96.97       96.75    
        96.53       96.32       96.10       95.89       95.67       95.45       95.23       95.02       94.81       94.61    
        94.43       94.27       94.13       94.02       93.95       93.92       93.92       93.96       94.04       94.15    
        94.28       94.43       94.59       94.77       94.95       95.13       95.31       95.49       95.66       95.83    
        95.99       96.15       96.30       96.45       96.58       96.72       96.84       96.96       97.08       97.19    
        97.29       97.39       97.49       97.58       97.67       97.76       97.84       97.92       97.99       98.07    
        98.14       98.20       98.27       98.33       98.39       98.45       98.50       98.56       98.61       98.66    
        98.71       98.75       98.80       98.84       98.89       98.93       98.97       99.01       99.05       99.08    
        99.12       99.16       99.19       99.22       99.26       99.29       99.32       99.35       99.38       99.41    
        99.45       99.48       99.51       99.54       99.58       99.62       99.66       99.71       99.78       99.87    
        100.0    
  23    100.0       99.18       98.64       98.24       97.92       97.64       97.39       97.15       96.93       96.70    
        96.48       96.26       96.04       95.82       95.59       95.37       95.14       94.92       94.70       94.50    
        94.30       94.13       93.99       93.87       93.80       93.76       93.77       93.81       93.89       94.01    
        94.15       94.31       94.48       94.66       94.85       95.04       95.23       95.41       95.59       95.77    
        95.93       96.09       96.25       96.40       96.54       96.67       96.80       96.92       97.04       97.15    
        97.26       97.36       97.46       97.55       97.64       97.73       97.81       97.89       97.97       98.04    
        98.11       98.18       98.24       98.31       98.37       98.42       98.48       98.54       98.59       98.64    
        98.69       98.74       98.78       98.83       98.87       98.91       98.95       98.99       99.03       99.07    
        99.11       99.14       99.18       99.21       99.24       99.28       99.31       99.34       99.37       99.41    
        99.44       99.47       99.50       99.54       99.57       99.61       99.66       99.71       99.77       99.86    
        100.0    
  24    100.0       99.17       98.63       98.22       97.90       97.62       97.36       97.12       96.89       96.67    
        96.44       96.22       95.99       95.77       95.54       95.30       95.07       94.84       94.62       94.40    
        94.20       94.02       93.87       93.76       93.68       93.64       93.64       93.69       93.78       93.90    
        94.04       94.21       94.39       94.58       94.77       94.97       95.16       95.35       95.53       95.71    
        95.88       96.05       96.20       96.35       96.50       96.63       96.76       96.89       97.01       97.12    
        97.23       97.33       97.43       97.52       97.62       97.70       97.79       97.87       97.94       98.02    
        98.09       98.16       98.22       98.29       98.35       98.41       98.46       98.52       98.57       98.62    
        98.67       98.72       98.77       98.81       98.86       98.90       98.94       98.98       99.02       99.06    
        99.09       99.13       99.17       99.20       99.23       99.27       99.30       99.33       99.36       99.40    
        99.43       99.46       99.50       99.53       99.57       99.61       99.65       99.71       99.77       99.86    
        100.0    
  25    100.0       99.16       98.62       98.21       97.88       97.60       97.34       97.10       96.87       96.64    
        96.42       96.19       95.96       95.73       95.49       95.26       95.02       94.79       94.56       94.34    
        94.14       93.95       93.80       93.68       93.59       93.56       93.56       93.61       93.70       93.82    
        93.97       94.14       94.33       94.52       94.72       94.92       95.11       95.31       95.49       95.67    
        95.85       96.01       96.17       96.32       96.47       96.60       96.73       96.86       96.98       97.09    
        97.20       97.31       97.41       97.50       97.59       97.68       97.76       97.84       97.92       98.00    
        98.07       98.14       98.20       98.27       98.33       98.39       98.45       98.50       98.55       98.61    
        98.66       98.70       98.75       98.80       98.84       98.88       98.93       98.97       99.01       99.05    
        99.08       99.12       99.15       99.19       99.22       99.26       99.29       99.32       99.36       99.39    
        99.42       99.45       99.49       99.52       99.56       99.60       99.65       99.70       99.77       99.86    
        100.0    
  26    100.0       99.16       98.61       98.20       97.87       97.59       97.33       97.09       96.85       96.63    
        96.40       96.17       95.94       95.71       95.47       95.24       95.00       94.76       94.53       94.31    
        94.10       93.92       93.76       93.64       93.56       93.52       93.52       93.57       93.66       93.79    
        93.94       94.11       94.30       94.49       94.69       94.89       95.09       95.28       95.47       95.65    
        95.82       95.99       96.15       96.30       96.44       96.58       96.71       96.84       96.96       97.07    
        97.18       97.29       97.39       97.48       97.57       97.66       97.75       97.83       97.90       97.98    
        98.05       98.12       98.19       98.25       98.31       98.37       98.43       98.49       98.54       98.59    
        98.64       98.69       98.74       98.78       98.83       98.87       98.91       98.96       99.00       99.03    
        99.07       99.11       99.15       99.18       99.22       99.25       99.28       99.32       99.35       99.38    
        99.41       99.45       99.48       99.52       99.56       99.60       99.64       99.70       99.77       99.86    
        100.0    
  27    100.0       99.16       98.61       98.20       97.87       97.58       97.33       97.08       96.85       96.62    
        96.39       96.17       95.94       95.70       95.47       95.23       95.00       94.76       94.53       94.31    
        94.11       93.92       93.77       93.64       93.56       93.52       93.53       93.58       93.67       93.79    
        93.94       94.11       94.29       94.49       94.68       94.88       95.08       95.27       95.46       95.64    
        95.81       95.98       96.13       96.29       96.43       96.57       96.70       96.82       96.94       97.06    
        97.17       97.27       97.37       97.47       97.56       97.65       97.73       97.81       97.89       97.96    
        98.04       98.11       98.17       98.24       98.30       98.36       98.42       98.47       98.53       98.58    
        98.63       98.68       98.73       98.77       98.82       98.86       98.90       98.95       98.99       99.02    
        99.06       99.10       99.14       99.17       99.21       99.24       99.28       99.31       99.34       99.38    
        99.41       99.44       99.48       99.51       99.55       99.59       99.64       99.69       99.76       99.86    
        100.0    
  28    100.0       99.16       98.61       98.20       97.87       97.59       97.33       97.09       96.86       96.63    
        96.40       96.18       95.95       95.72       95.49       95.25       95.02       94.79       94.56       94.35    
        94.14       93.96       93.81       93.69       93.61       93.57       93.58       93.63       93.71       93.83    
        93.97       94.14       94.32       94.51       94.70       94.90       95.09       95.28       95.46       95.64    
        95.81       95.97       96.13       96.28       96.42       96.56       96.69       96.82       96.93       97.05    
        97.16       97.26       97.36       97.46       97.55       97.64       97.72       97.80       97.88       97.95    
        98.02       98.09       98.16       98.23       98.29       98.35       98.41       98.46       98.52       98.57    
        98.62       98.67       98.72       98.76       98.81       98.85       98.89       98.94       98.98       99.02    
        99.05       99.09       99.13       99.16       99.20       99.23       99.27       99.30       99.34       99.37    
        99.40       99.44       99.47       99.51       99.55       99.59       99.64       99.69       99.76       99.86    
        100.0    
  29    100.0       99.16       98.61       98.21       97.88       97.60       97.34       97.10       96.87       96.64    
        96.42       96.20       95.97       95.75       95.52       95.29       95.06       94.84       94.62       94.41    
        94.21       94.04       93.89       93.78       93.70       93.66       93.67       93.71       93.79       93.90    
        94.04       94.20       94.37       94.56       94.74       94.93       95.12       95.30       95.48       95.66    
        95.82       95.98       96.14       96.29       96.43       96.56       96.69       96.81       96.93       97.04    
        97.15       97.26       97.35       97.45       97.54       97.63       97.71       97.79       97.87       97.94    
        98.02       98.08       98.15       98.22       98.28       98.34       98.40       98.45       98.51       98.56    
        98.61       98.66       98.71       98.75       98.80       98.84       98.89       98.93       98.97       99.01    
        99.05       99.08       99.12       99.16       99.19       99.23       99.26       99.30       99.33       99.36    
        99.40       99.43       99.47       99.50       99.54       99.59       99.63       99.69       99.76       99.85    
        100.0    
  30    100.0       99.17       98.62       98.22       97.89       97.61       97.36       97.12       96.89       96.67    
        96.45       96.23       96.01       95.79       95.57       95.35       95.13       94.91       94.70       94.50    
        94.31       94.15       94.01       93.90       93.82       93.79       93.79       93.83       93.90       94.01    
        94.14       94.29       94.45       94.63       94.80       94.98       95.17       95.34       95.52       95.68    
        95.85       96.00       96.16       96.30       96.44       96.57       96.70       96.82       96.94       97.05    
        97.15       97.26       97.35       97.45       97.54       97.62       97.71       97.79       97.86       97.94    
        98.01       98.08       98.14       98.21       98.27       98.33       98.39       98.45       98.50       98.55    
        98.60       98.65       98.70       98.75       98.79       98.84       98.88       98.92       98.96       99.00    
        99.04       99.08       99.12       99.15       99.19       99.22       99.26       99.29       99.32       99.36    
        99.39       99.43       99.46       99.50       99.54       99.58       99.63       99.69       99.76       99.85    
        100.0    
  31    100.0       99.17       98.63       98.23       97.91       97.63       97.38       97.15       96.92       96.71    
        96.49       96.28       96.06       95.85       95.63       95.42       95.21       95.00       94.80       94.61    
        94.43       94.28       94.15       94.04       93.97       93.94       93.94       93.97       94.04       94.14    
        94.26       94.40       94.55       94.71       94.88       95.05       95.23       95.40       95.56       95.73    
        95.88       96.03       96.18       96.32       96.46       96.59       96.71       96.83       96.94       97.05    
        97.16       97.26       97.36       97.45       97.54       97.62       97.71       97.78       97.86       97.93    
        98.01       98.07       98.14       98.20       98.27       98.33       98.38       98.44       98.49       98.55    
        98.60       98.65       98.69       98.74       98.79       98.83       98.87       98.92       98.96       99.00    
        99.03       99.07       99.11       99.15       99.18       99.22       99.25       99.29       99.32       99.35    
        99.39       99.42       99.46       99.50       99.54       99.58       99.63       99.68       99.76       99.85    
        100.0    
  32    100.0       99.18       98.65       98.25       97.93       97.66       97.41       97.18       96.96       96.75    
        96.54       96.33       96.13       95.92       95.71       95.51       95.31       95.11       94.92       94.74    
        94.58       94.43       94.31       94.21       94.14       94.11       94.11       94.14       94.20       94.29    
        94.40       94.53       94.67       94.82       94.98       95.14       95.30       95.46       95.62       95.78    
        95.93       96.07       96.22       96.35       96.48       96.61       96.73       96.85       96.96       97.07    
        97.17       97.27       97.36       97.45       97.54       97.63       97.71       97.79       97.86       97.93    
        98.00       98.07       98.14       98.20       98.26       98.32       98.38       98.44       98.49       98.54    
        98.59       98.64       98.69       98.74       98.78       98.83       98.87       98.91       98.95       98.99    
        99.03       99.07       99.11       99.14       99.18       99.21       99.25       99.28       99.32       99.35    
        99.39       99.42       99.46       99.49       99.53       99.58       99.63       99.68       99.75       99.85    
        100.0    
  33    100.0       99.19       98.66       98.27       97.96       97.69       97.45       97.22       97.01       96.80    
        96.60       96.40       96.20       96.00       95.80       95.61       95.42       95.23       95.05       94.88    
        94.73       94.59       94.48       94.39       94.33       94.30       94.29       94.32       94.37       94.45    
        94.55       94.67       94.80       94.94       95.08       95.23       95.39       95.54       95.69       95.84    
        95.98       96.12       96.26       96.39       96.52       96.64       96.75       96.87       96.98       97.08    
        97.18       97.28       97.37       97.46       97.55       97.63       97.71       97.79       97.86       97.94    
        98.01       98.07       98.14       98.20       98.26       98.32       98.38       98.43       98.49       98.54    
        98.59       98.64       98.69       98.73       98.78       98.82       98.87       98.91       98.95       98.99    
        99.03       99.06       99.10       99.14       99.17       99.21       99.24       99.28       99.31       99.35    
        99.38       99.42       99.45       99.49       99.53       99.57       99.62       99.68       99.75       99.85    
        100.0    
  34    100.0       99.20       98.68       98.30       97.99       97.72       97.49       97.27       97.06       96.86    
        96.66       96.47       96.28       96.09       95.90       95.71       95.53       95.36       95.19       95.04    
        94.89       94.77       94.66       94.58       94.52       94.49       94.49       94.51       94.56       94.63    
        94.71       94.82       94.94       95.07       95.20       95.34       95.48       95.62       95.77       95.91    
        96.04       96.18       96.31       96.43       96.55       96.67       96.79       96.89       97.00       97.10    
        97.20       97.30       97.39       97.47       97.56       97.64       97.72       97.80       97.87       97.94    
        98.01       98.08       98.14       98.20       98.26       98.32       98.38       98.43       98.49       98.54    
        98.59       98.64       98.69       98.73       98.78       98.82       98.86       98.90       98.95       98.98    
        99.02       99.06       99.10       99.14       99.17       99.21       99.24       99.28       99.31       99.35    
        99.38       99.42       99.45       99.49       99.53       99.57       99.62       99.68       99.75       99.85    
        100.0    
  35    100.0       99.22       98.70       98.32       98.02       97.76       97.53       97.32       97.11       96.92    
        96.73       96.55       96.36       96.18       96.00       95.83       95.66       95.50       95.34       95.20    
        95.06       94.95       94.85       94.77       94.72       94.69       94.68       94.70       94.74       94.80    
        94.88       94.98       95.08       95.20       95.32       95.45       95.58       95.72       95.85       95.98    
        96.11       96.24       96.36       96.48       96.60       96.71       96.82       96.93       97.03       97.13    
        97.22       97.31       97.40       97.49       97.57       97.65       97.73       97.81       97.88       97.95    
        98.02       98.08       98.14       98.21       98.27       98.32       98.38       98.43       98.49       98.54    
        98.59       98.64       98.68       98.73       98.78       98.82       98.86       98.90       98.94       98.98    
        99.02       99.06       99.10       99.13       99.17       99.20       99.24       99.27       99.31       99.34    
        99.38       99.41       99.45       99.49       99.53       99.57       99.62       99.68       99.75       99.85    
        100.0    
  36    100.0       99.23       98.72       98.35       98.06       97.80       97.58       97.37       97.18       96.99    
        96.81       96.63       96.45       96.28       96.11       95.95       95.79       95.64       95.49       95.36    
        95.24       95.13       95.04       94.97       94.92       94.89       94.88       94.90       94.93       94.98    
        95.05       95.14       95.23       95.34       95.45       95.57       95.69       95.81       95.94       96.06    
        96.18       96.30       96.42       96.53       96.65       96.75       96.86       96.96       97.06       97.16    
        97.25       97.34       97.42       97.51       97.59       97.67       97.74       97.82       97.89       97.96    
        98.02       98.09       98.15       98.21       98.27       98.33       98.38       98.44       98.49       98.54    
        98.59       98.64       98.69       98.73       98.78       98.82       98.86       98.90       98.94       98.98    
        99.02       99.06       99.10       99.13       99.17       99.20       99.24       99.27       99.31       99.34    
        99.38       99.41       99.45       99.49       99.53       99.57       99.62       99.68       99.75       99.85    
        100.0    
  37    100.0       99.24       98.75       98.39       98.10       97.85       97.63       97.43       97.24       97.06    
        96.88       96.71       96.55       96.38       96.23       96.07       95.92       95.78       95.65       95.52    
        95.41       95.31       95.23       95.16       95.11       95.09       95.08       95.09       95.12       95.17    
        95.23       95.30       95.39       95.48       95.58       95.69       95.80       95.92       96.03       96.15    
        96.26       96.37       96.48       96.59       96.70       96.80       96.90       97.00       97.10       97.19    
        97.28       97.36       97.45       97.53       97.61       97.69       97.76       97.83       97.90       97.97    
        98.03       98.10       98.16       98.22       98.28       98.33       98.39       98.44       98.49       98.54    
        98.59       98.64       98.69       98.73       98.78       98.82       98.86       98.90       98.94       98.98    
        99.02       99.06       99.10       99.13       99.17       99.20       99.24       99.27       99.31       99.34    
        99.38       99.41       99.45       99.49       99.53       99.57       99.62       99.68       99.75       99.85    
        100.0    
  38    100.0       99.26       98.78       98.42       98.14       97.90       97.68       97.49       97.31       97.13    
        96.96       96.80       96.64       96.49       96.34       96.19       96.06       95.92       95.80       95.68    
        95.58       95.49       95.41       95.35       95.31       95.28       95.27       95.28       95.30       95.34    
        95.40       95.46       95.54       95.62       95.72       95.81       95.92       96.02       96.13       96.23    
        96.34       96.45       96.55       96.65       96.75       96.85       96.95       97.04       97.13       97.22    
        97.31       97.39       97.47       97.55       97.63       97.70       97.78       97.85       97.92       97.98    
        98.05       98.11       98.17       98.23       98.29       98.34       98.39       98.45       98.50       98.55    
        98.60       98.64       98.69       98.74       98.78       98.82       98.86       98.90       98.94       98.98    
        99.02       99.06       99.10       99.13       99.17       99.20       99.24       99.27       99.31       99.34    
        99.38       99.41       99.45       99.49       99.53       99.57       99.62       99.68       99.75       99.85    
        100.0    
  39    100.0       99.28       98.80       98.46       98.18       97.95       97.74       97.55       97.37       97.21    
        97.05       96.89       96.74       96.60       96.45       96.32       96.19       96.06       95.95       95.84    
        95.75       95.66       95.59       95.53       95.49       95.47       95.46       95.46       95.48       95.52    
        95.56       95.62       95.69       95.77       95.85       95.94       96.03       96.13       96.22       96.32    
        96.42       96.52       96.62       96.72       96.81       96.91       97.00       97.09       97.17       97.26    
        97.34       97.42       97.50       97.58       97.65       97.73       97.80       97.87       97.93       98.00    
        98.06       98.12       98.18       98.24       98.29       98.35       98.40       98.45       98.50       98.55    
        98.60       98.65       98.69       98.74       98.78       98.82       98.87       98.91       98.95       98.98    
        99.02       99.06       99.10       99.13       99.17       99.20       99.24       99.27       99.31       99.34    
        99.38       99.41       99.45       99.49       99.53       99.57       99.62       99.68       99.75       99.85    
        100.0    
  40    100.0       99.29       98.83       98.49       98.23       98.00       97.80       97.62       97.45       97.28    
        97.13       96.98       96.84       96.70       96.57       96.44       96.32       96.20       96.10       96.00    
        95.91       95.83       95.77       95.71       95.67       95.65       95.64       95.64       95.66       95.68    
        95.73       95.78       95.84       95.91       95.98       96.06       96.15       96.23       96.32       96.41    
        96.51       96.60       96.69       96.78       96.87       96.96       97.05       97.13       97.22       97.30    
        97.38       97.46       97.53       97.61       97.68       97.75       97.82       97.89       97.95       98.01    
        98.08       98.14       98.19       98.25       98.31       98.36       98.41       98.46       98.51       98.56    
        98.61       98.65       98.70       98.74       98.79       98.83       98.87       98.91       98.95       98.99    
        99.03       99.06       99.10       99.13       99.17       99.20       99.24       99.27       99.31       99.34    
        99.38       99.41       99.45       99.49       99.53       99.57       99.62       99.68       99.75       99.85    
        100.0    
  41    100.0       99.31       98.86       98.53       98.27       98.05       97.86       97.68       97.52       97.36    
        97.22       97.07       96.94       96.81       96.68       96.56       96.45       96.34       96.24       96.15    
        96.07       95.99       95.93       95.88       95.85       95.82       95.81       95.81       95.82       95.85    
        95.88       95.93       95.98       96.04       96.11       96.18       96.26       96.34       96.42       96.51    
        96.59       96.68       96.76       96.85       96.94       97.02       97.10       97.18       97.26       97.34    
        97.42       97.49       97.57       97.64       97.71       97.78       97.84       97.91       97.97       98.03    
        98.09       98.15       98.21       98.26       98.32       98.37       98.42       98.47       98.52       98.57    
        98.62       98.66       98.71       98.75       98.79       98.83       98.87       98.91       98.95       98.99    
        99.03       99.07       99.10       99.14       99.17       99.21       99.24       99.27       99.31       99.34    
        99.38       99.41       99.45       99.49       99.53       99.57       99.62       99.68       99.75       99.85    
        100.0    
  42    100.0       99.33       98.89       98.57       98.32       98.10       97.92       97.75       97.59       97.44    
        97.30       97.17       97.04       96.91       96.80       96.68       96.58       96.47       96.38       96.30    
        96.22       96.15       96.09       96.05       96.01       95.99       95.98       95.97       95.98       96.00    
        96.03       96.07       96.12       96.18       96.24       96.30       96.37       96.45       96.52       96.60    
        96.68       96.76       96.84       96.92       97.00       97.08       97.16       97.24       97.31       97.39    
        97.46       97.53       97.60       97.67       97.74       97.80       97.87       97.93       97.99       98.05    
        98.11       98.17       98.22       98.28       98.33       98.38       98.43       98.48       98.53       98.58    
        98.62       98.67       98.71       98.76       98.80       98.84       98.88       98.92       98.96       99.00    
        99.03       99.07       99.10       99.14       99.17       99.21       99.24       99.28       99.31       99.34    
        99.38       99.41       99.45       99.49       99.53       99.57       99.62       99.68       99.75       99.85    
        100.0    
  43    100.0       99.35       98.92       98.61       98.36       98.16       97.97       97.81       97.66       97.52    
        97.38       97.26       97.13       97.02       96.91       96.80       96.70       96.60       96.52       96.44    
        96.36       96.30       96.25       96.20       96.17       96.15       96.13       96.13       96.14       96.16    
        96.18       96.22       96.26       96.31       96.36       96.42       96.48       96.55       96.62       96.69    
        96.76       96.84       96.91       96.99       97.07       97.14       97.21       97.29       97.36       97.43    
        97.50       97.57       97.64       97.71       97.77       97.83       97.90       97.96       98.02       98.08    
        98.13       98.19       98.24       98.30       98.35       98.40       98.45       98.50       98.54       98.59    
        98.63       98.68       98.72       98.76       98.81       98.85       98.89       98.92       98.96       99.00    
        99.04       99.07       99.11       99.14       99.18       99.21       99.25       99.28       99.31       99.35    
        99.38       99.42       99.45       99.49       99.53       99.57       99.62       99.68       99.75       99.85    
        100.0    
  44    100.0       99.36       98.95       98.65       98.41       98.21       98.03       97.88       97.73       97.60    
        97.47       97.35       97.23       97.12       97.01       96.91       96.82       96.73       96.65       96.57    
        96.51       96.45       96.40       96.35       96.32       96.30       96.29       96.28       96.29       96.30    
        96.32       96.35       96.39       96.43       96.48       96.53       96.59       96.65       96.72       96.78    
        96.85       96.92       96.99       97.06       97.13       97.20       97.27       97.34       97.41       97.48    
        97.55       97.61       97.68       97.74       97.80       97.86       97.93       97.98       98.04       98.10    
        98.15       98.21       98.26       98.31       98.36       98.41       98.46       98.51       98.56       98.60    
        98.65       98.69       98.73       98.77       98.81       98.85       98.89       98.93       98.97       99.01    
        99.04       99.08       99.11       99.15       99.18       99.22       99.25       99.28       99.32       99.35    
        99.38       99.42       99.45       99.49       99.53       99.57       99.62       99.68       99.75       99.85    
        100.0    
  45    100.0       99.38       98.98       98.69       98.46       98.26       98.09       97.94       97.80       97.67    
        97.55       97.43       97.32       97.22       97.12       97.02       96.93       96.85       96.77       96.70    
        96.64       96.58       96.54       96.50       96.47       96.44       96.43       96.42       96.43       96.44    
        96.46       96.48       96.52       96.55       96.60       96.65       96.70       96.75       96.81       96.87    
        96.94       97.00       97.07       97.13       97.20       97.26       97.33       97.40       97.46       97.53    
        97.59       97.65       97.72       97.78       97.84       97.90       97.95       98.01       98.07       98.12    
        98.18       98.23       98.28       98.33       98.38       98.43       98.48       98.52       98.57       98.61    
        98.66       98.70       98.74       98.78       98.82       98.86       98.90       98.94       98.98       99.01    
        99.05       99.08       99.12       99.15       99.19       99.22       99.25       99.29       99.32       99.35    
        99.39       99.42       99.46       99.49       99.53       99.58       99.62       99.68       99.75       99.85    
        100.0    
  46    100.0       99.40       99.01       98.73       98.50       98.32       98.15       98.01       97.87       97.75    
        97.63       97.52       97.41       97.31       97.22       97.13       97.05       96.97       96.89       96.83    
        96.77       96.72       96.67       96.63       96.60       96.58       96.57       96.56       96.56       96.57    
        96.59       96.61       96.64       96.67       96.71       96.75       96.80       96.85       96.91       96.96    
        97.02       97.08       97.14       97.20       97.26       97.33       97.39       97.45       97.51       97.57    
        97.64       97.70       97.76       97.81       97.87       97.93       97.99       98.04       98.10       98.15    
        98.20       98.25       98.30       98.35       98.40       98.45       98.49       98.54       98.58       98.63    
        98.67       98.71       98.75       98.79       98.83       98.87       98.91       98.95       98.98       99.02    
        99.05       99.09       99.12       99.16       99.19       99.22       99.26       99.29       99.32       99.36    
        99.39       99.42       99.46       99.50       99.54       99.58       99.63       99.68       99.75       99.85    
        100.0    
  47    100.0       99.42       99.04       98.77       98.55       98.37       98.21       98.07       97.94       97.82    
        97.71       97.60       97.50       97.41       97.32       97.23       97.15       97.08       97.01       96.95    
        96.89       96.84       96.80       96.76       96.73       96.71       96.70       96.69       96.69       96.70    
        96.71       96.73       96.75       96.79       96.82       96.86       96.90       96.95       97.00       97.05    
        97.10       97.16       97.21       97.27       97.33       97.39       97.45       97.51       97.57       97.62    
        97.68       97.74       97.80       97.85       97.91       97.96       98.02       98.07       98.12       98.17    
        98.23       98.28       98.32       98.37       98.42       98.47       98.51       98.55       98.60       98.64    
        98.68       98.72       98.76       98.80       98.84       98.88       98.92       98.96       98.99       99.03    
        99.06       99.10       99.13       99.16       99.20       99.23       99.26       99.30       99.33       99.36    
        99.39       99.43       99.46       99.50       99.54       99.58       99.63       99.68       99.76       99.85    
        100.0    
  48    100.0       99.44       99.07       98.80       98.59       98.42       98.27       98.13       98.01       97.89    
        97.79       97.68       97.59       97.50       97.41       97.33       97.26       97.19       97.12       97.06    
        97.01       96.96       96.92       96.89       96.86       96.84       96.82       96.82       96.81       96.82    
        96.83       96.85       96.87       96.89       96.93       96.96       97.00       97.04       97.09       97.13    
        97.18       97.24       97.29       97.34       97.40       97.45       97.51       97.56       97.62       97.67    
        97.73       97.78       97.84       97.89       97.95       98.00       98.05       98.10       98.15       98.20    
        98.25       98.30       98.35       98.39       98.44       98.48       98.53       98.57       98.61       98.66    
        98.70       98.74       98.78       98.82       98.85       98.89       98.93       98.96       99.00       99.04    
        99.07       99.10       99.14       99.17       99.20       99.24       99.27       99.30       99.33       99.37    
        99.40       99.43       99.47       99.50       99.54       99.58       99.63       99.69       99.76       99.85    
        100.0    
  49    100.0       99.45       99.10       98.84       98.64       98.47       98.32       98.19       98.07       97.96    
        97.86       97.76       97.67       97.59       97.51       97.43       97.36       97.29       97.23       97.17    
        97.12       97.08       97.04       97.01       96.98       96.96       96.94       96.93       96.93       96.94    
        96.94       96.96       96.98       97.00       97.03       97.06       97.10       97.13       97.17       97.22    
        97.26       97.31       97.36       97.41       97.46       97.51       97.57       97.62       97.67       97.72    
        97.78       97.83       97.88       97.93       97.98       98.03       98.08       98.13       98.18       98.23    
        98.28       98.32       98.37       98.42       98.46       98.50       98.55       98.59       98.63       98.67    
        98.71       98.75       98.79       98.83       98.87       98.90       98.94       98.97       99.01       99.04    
        99.08       99.11       99.14       99.18       99.21       99.24       99.27       99.31       99.34       99.37    
        99.40       99.44       99.47       99.51       99.54       99.59       99.63       99.69       99.76       99.85    
        100.0    
  50    100.0       99.47       99.13       98.88       98.68       98.52       98.38       98.25       98.14       98.03    
        97.93       97.84       97.75       97.67       97.60       97.52       97.45       97.39       97.33       97.28    
        97.23       97.19       97.15       97.12       97.09       97.07       97.06       97.05       97.04       97.05    
        97.05       97.07       97.08       97.10       97.13       97.16       97.19       97.22       97.26       97.30    
        97.34       97.39       97.43       97.48       97.53       97.57       97.62       97.67       97.72       97.77    
        97.82       97.87       97.92       97.97       98.02       98.07       98.12       98.17       98.21       98.26    
        98.31       98.35       98.40       98.44       98.48       98.52       98.57       98.61       98.65       98.69    
        98.73       98.77       98.80       98.84       98.88       98.91       98.95       98.98       99.02       99.05    
        99.09       99.12       99.15       99.18       99.22       99.25       99.28       99.31       99.34       99.38    
        99.41       99.44       99.47       99.51       99.55       99.59       99.64       99.69       99.76       99.86    
        100.0    
  51    100.0       99.49       99.16       98.91       98.73       98.57       98.43       98.31       98.20       98.10    
        98.00       97.92       97.83       97.75       97.68       97.61       97.55       97.49       97.43       97.38    
        97.34       97.29       97.26       97.23       97.20       97.18       97.17       97.16       97.15       97.15    
        97.16       97.17       97.18       97.20       97.22       97.25       97.28       97.31       97.34       97.38    
        97.42       97.46       97.50       97.55       97.59       97.64       97.68       97.73       97.78       97.82    
        97.87       97.92       97.97       98.01       98.06       98.11       98.15       98.20       98.24       98.29    
        98.33       98.38       98.42       98.46       98.50       98.55       98.59       98.63       98.67       98.71    
        98.74       98.78       98.82       98.86       98.89       98.93       98.96       99.00       99.03       99.06    
        99.10       99.13       99.16       99.19       99.22       99.26       99.29       99.32       99.35       99.38    
        99.41       99.44       99.48       99.51       99.55       99.59       99.64       99.69       99.76       99.86    
        100.0    
  52    100.0       99.50       99.18       98.95       98.77       98.62       98.48       98.37       98.26       98.16    
        98.07       97.99       97.91       97.83       97.76       97.70       97.64       97.58       97.53       97.48    
        97.43       97.39       97.36       97.33       97.31       97.29       97.27       97.26       97.26       97.26    
        97.26       97.27       97.28       97.30       97.31       97.34       97.36       97.39       97.42       97.46    
        97.49       97.53       97.57       97.61       97.65       97.70       97.74       97.78       97.83       97.87    
        97.92       97.96       98.01       98.05       98.10       98.14       98.19       98.23       98.28       98.32    
        98.36       98.40       98.45       98.49       98.53       98.57       98.61       98.65       98.69       98.72    
        98.76       98.80       98.83       98.87       98.90       98.94       98.97       99.01       99.04       99.07    
        99.11       99.14       99.17       99.20       99.23       99.26       99.29       99.32       99.36       99.39    
        99.42       99.45       99.48       99.52       99.56       99.60       99.64       99.70       99.76       99.86    
        100.0    
  53    100.0       99.52       99.21       98.98       98.81       98.66       98.53       98.42       98.32       98.23    
        98.14       98.06       97.98       97.91       97.84       97.78       97.72       97.67       97.62       97.57    
        97.53       97.49       97.46       97.43       97.41       97.39       97.37       97.36       97.35       97.35    
        97.36       97.36       97.37       97.39       97.40       97.42       97.45       97.47       97.50       97.53    
        97.57       97.60       97.64       97.68       97.72       97.76       97.80       97.84       97.88       97.92    
        97.97       98.01       98.05       98.09       98.14       98.18       98.22       98.27       98.31       98.35    
        98.39       98.43       98.47       98.51       98.55       98.59       98.63       98.67       98.70       98.74    
        98.78       98.81       98.85       98.88       98.92       98.95       98.99       99.02       99.05       99.08    
        99.12       99.15       99.18       99.21       99.24       99.27       99.30       99.33       99.36       99.39    
        99.42       99.46       99.49       99.52       99.56       99.60       99.65       99.70       99.77       99.86    
        100.0    
  54    100.0       99.54       99.24       99.02       98.85       98.71       98.58       98.48       98.38       98.29    
        98.21       98.13       98.05       97.99       97.92       97.86       97.81       97.75       97.70       97.66    
        97.62       97.58       97.55       97.52       97.50       97.48       97.47       97.46       97.45       97.45    
        97.45       97.45       97.46       97.47       97.49       97.51       97.53       97.55       97.58       97.61    
        97.64       97.67       97.71       97.74       97.78       97.81       97.85       97.89       97.93       97.97    
        98.01       98.05       98.09       98.14       98.18       98.22       98.26       98.30       98.34       98.38    
        98.42       98.46       98.50       98.54       98.58       98.61       98.65       98.69       98.72       98.76    
        98.80       98.83       98.87       98.90       98.93       98.97       99.00       99.03       99.06       99.10    
        99.13       99.16       99.19       99.22       99.25       99.28       99.31       99.34       99.37       99.40    
        99.43       99.46       99.49       99.53       99.56       99.60       99.65       99.70       99.77       99.86    
        100.0    
  55    100.0       99.55       99.26       99.05       98.89       98.75       98.63       98.53       98.43       98.35    
        98.27       98.19       98.12       98.06       98.00       97.94       97.89       97.84       97.79       97.75    
        97.71       97.67       97.64       97.62       97.59       97.57       97.56       97.55       97.54       97.54    
        97.54       97.54       97.55       97.56       97.57       97.59       97.61       97.63       97.65       97.68    
        97.71       97.74       97.77       97.80       97.84       97.87       97.91       97.95       97.98       98.02    
        98.06       98.10       98.14       98.18       98.22       98.26       98.29       98.33       98.37       98.41    
        98.45       98.49       98.53       98.56       98.60       98.64       98.67       98.71       98.74       98.78    
        98.81       98.85       98.88       98.92       98.95       98.98       99.01       99.05       99.08       99.11    
        99.14       99.17       99.20       99.23       99.26       99.29       99.32       99.35       99.38       99.41    
        99.44       99.47       99.50       99.53       99.57       99.61       99.65       99.71       99.77       99.86    
        100.0    
  56    100.0       99.57       99.29       99.08       98.93       98.79       98.68       98.58       98.49       98.41    
        98.33       98.26       98.19       98.13       98.07       98.01       97.96       97.91       97.87       97.83    
        97.79       97.76       97.73       97.70       97.68       97.66       97.65       97.64       97.63       97.62    
        97.62       97.63       97.63       97.64       97.65       97.67       97.69       97.70       97.73       97.75    
        97.78       97.80       97.83       97.86       97.90       97.93       97.96       98.00       98.03       98.07    
        98.11       98.14       98.18       98.22       98.26       98.29       98.33       98.37       98.41       98.44    
        98.48       98.52       98.55       98.59       98.63       98.66       98.70       98.73       98.77       98.80    
        98.83       98.87       98.90       98.93       98.96       99.00       99.03       99.06       99.09       99.12    
        99.15       99.18       99.21       99.24       99.27       99.30       99.33       99.35       99.38       99.41    
        99.44       99.47       99.51       99.54       99.57       99.61       99.66       99.71       99.77       99.86    
        100.0    
  57    100.0       99.58       99.31       99.12       98.96       98.83       98.73       98.63       98.54       98.46    
        98.39       98.32       98.25       98.19       98.14       98.08       98.04       97.99       97.95       97.91    
[...]
        99.71       99.72       99.73       99.74       99.74       99.75       99.76       99.76       99.77       99.77    
        99.77    
  88    99.58       99.58       99.57       99.56       99.56       99.55       99.53       99.52       99.51       99.49    
        99.48       99.47       99.45       99.44       99.42       99.41       99.40       99.38       99.37       99.36    
        99.35       99.34       99.33       99.32       99.31       99.30       99.30       99.29       99.28       99.28    
        99.27       99.27       99.27       99.26       99.26       99.26       99.26       99.26       99.26       99.26    
        99.26       99.26       99.27       99.27       99.27       99.28       99.28       99.29       99.29       99.30    
        99.30       99.31       99.32       99.33       99.33       99.34       99.35       99.36       99.37       99.38    
        99.39       99.40       99.41       99.42       99.43       99.44       99.45       99.46       99.47       99.48    
        99.49       99.50       99.51       99.53       99.54       99.55       99.56       99.57       99.58       99.59    
        99.61       99.62       99.63       99.64       99.65       99.66       99.67       99.68       99.70       99.71    
        99.72       99.73       99.74       99.74       99.75       99.76       99.77       99.77       99.78       99.78    
        99.78    
  89    99.60       99.59       99.59       99.58       99.57       99.56       99.55       99.54       99.53       99.52    
        99.50       99.49       99.47       99.46       99.45       99.43       99.42       99.41       99.40       99.39    
        99.38       99.37       99.36       99.35       99.34       99.33       99.32       99.32       99.31       99.31    
        99.30       99.30       99.30       99.29       99.29       99.29       99.29       99.29       99.29       99.29    
        99.29       99.29       99.30       99.30       99.30       99.31       99.31       99.32       99.32       99.33    
        99.33       99.34       99.35       99.35       99.36       99.37       99.38       99.38       99.39       99.40    
        99.41       99.42       99.43       99.44       99.45       99.46       99.47       99.48       99.49       99.50    
        99.51       99.52       99.53       99.54       99.55       99.56       99.58       99.59       99.60       99.61    
        99.62       99.63       99.64       99.65       99.66       99.67       99.68       99.70       99.71       99.72    
        99.73       99.74       99.74       99.75       99.76       99.77       99.77       99.78       99.78       99.79    
        99.79    
  90    99.61       99.61       99.61       99.60       99.59       99.58       99.57       99.56       99.55       99.54    
        99.52       99.51       99.50       99.48       99.47       99.46       99.45       99.43       99.42       99.41    
        99.40       99.39       99.38       99.38       99.37       99.36       99.35       99.35       99.34       99.34    
        99.33       99.33       99.32       99.32       99.32       99.32       99.32       99.32       99.32       99.32    
        99.32       99.32       99.32       99.33       99.33       99.33       99.34       99.34       99.35       99.35    
        99.36       99.36       99.37       99.38       99.38       99.39       99.40       99.41       99.42       99.42    
        99.43       99.44       99.45       99.46       99.47       99.48       99.49       99.50       99.51       99.52    
        99.53       99.54       99.55       99.56       99.57       99.58       99.59       99.60       99.61       99.62    
        99.63       99.64       99.65       99.66       99.68       99.69       99.70       99.71       99.72       99.73    
        99.73       99.74       99.75       99.76       99.77       99.78       99.78       99.79       99.79       99.79    
        99.79    
  91    99.63       99.62       99.62       99.61       99.61       99.60       99.59       99.58       99.57       99.55    
        99.54       99.53       99.52       99.50       99.49       99.48       99.47       99.46       99.45       99.44    
        99.43       99.42       99.41       99.40       99.39       99.39       99.38       99.37       99.37       99.36    
        99.36       99.36       99.35       99.35       99.35       99.35       99.35       99.35       99.35       99.35    
        99.35       99.35       99.35       99.35       99.36       99.36       99.36       99.37       99.37       99.38    
        99.38       99.39       99.40       99.40       99.41       99.42       99.42       99.43       99.44       99.45    
        99.45       99.46       99.47       99.48       99.49       99.50       99.51       99.52       99.53       99.54    
        99.55       99.56       99.57       99.58       99.59       99.60       99.61       99.62       99.63       99.64    
        99.65       99.66       99.67       99.68       99.69       99.70       99.71       99.72       99.73       99.73    
        99.74       99.75       99.76       99.77       99.78       99.78       99.79       99.79       99.80       99.80    
        99.80    
  92    99.64       99.64       99.64       99.63       99.62       99.61       99.60       99.59       99.58       99.57    
        99.56       99.55       99.54       99.53       99.51       99.50       99.49       99.48       99.47       99.46    
        99.45       99.44       99.43       99.43       99.42       99.41       99.41       99.40       99.40       99.39    
        99.39       99.38       99.38       99.38       99.38       99.37       99.37       99.37       99.37       99.37    
        99.37       99.38       99.38       99.38       99.38       99.39       99.39       99.39       99.40       99.40    
        99.41       99.41       99.42       99.43       99.43       99.44       99.45       99.45       99.46       99.47    
        99.48       99.48       99.49       99.50       99.51       99.52       99.53       99.54       99.54       99.55    
        99.56       99.57       99.58       99.59       99.60       99.61       99.62       99.63       99.64       99.65    
        99.66       99.67       99.68       99.69       99.70       99.71       99.72       99.73       99.74       99.74    
        99.75       99.76       99.77       99.78       99.78       99.79       99.80       99.80       99.80       99.81    
        99.81    
  93    99.65       99.65       99.65       99.64       99.64       99.63       99.62       99.61       99.60       99.59    
        99.58       99.57       99.56       99.54       99.53       99.52       99.51       99.50       99.49       99.48    
        99.47       99.47       99.46       99.45       99.44       99.44       99.43       99.42       99.42       99.42    
        99.41       99.41       99.40       99.40       99.40       99.40       99.40       99.40       99.40       99.40    
        99.40       99.40       99.40       99.40       99.41       99.41       99.41       99.42       99.42       99.43    
        99.43       99.44       99.44       99.45       99.45       99.46       99.47       99.47       99.48       99.49    
        99.50       99.50       99.51       99.52       99.53       99.54       99.54       99.55       99.56       99.57    
        99.58       99.59       99.60       99.61       99.62       99.62       99.63       99.64       99.65       99.66    
        99.67       99.68       99.69       99.70       99.71       99.72       99.73       99.74       99.74       99.75    
        99.76       99.77       99.78       99.78       99.79       99.80       99.80       99.81       99.81       99.81    
        99.81    
  94    99.67       99.66       99.66       99.66       99.65       99.64       99.63       99.62       99.61       99.60    
        99.59       99.58       99.57       99.56       99.55       99.54       99.53       99.52       99.51       99.50    
        99.49       99.49       99.48       99.47       99.46       99.46       99.45       99.45       99.44       99.44    
        99.43       99.43       99.43       99.43       99.42       99.42       99.42       99.42       99.42       99.42    
        99.42       99.42       99.43       99.43       99.43       99.43       99.44       99.44       99.44       99.45    
        99.45       99.46       99.46       99.47       99.47       99.48       99.49       99.49       99.50       99.51    
        99.51       99.52       99.53       99.54       99.54       99.55       99.56       99.57       99.58       99.59    
        99.59       99.60       99.61       99.62       99.63       99.64       99.65       99.66       99.66       99.67    
        99.68       99.69       99.70       99.71       99.72       99.73       99.74       99.74       99.75       99.76    
        99.77       99.78       99.78       99.79       99.80       99.80       99.81       99.81       99.82       99.82    
        99.82    
  95    99.68       99.68       99.67       99.67       99.66       99.65       99.65       99.64       99.63       99.62    
        99.61       99.60       99.59       99.58       99.57       99.56       99.55       99.54       99.53       99.52    
        99.51       99.51       99.50       99.49       99.49       99.48       99.47       99.47       99.46       99.46    
        99.46       99.45       99.45       99.45       99.45       99.44       99.44       99.44       99.44       99.44    
        99.44       99.45       99.45       99.45       99.45       99.45       99.46       99.46       99.46       99.47    
        99.47       99.48       99.48       99.49       99.49       99.50       99.51       99.51       99.52       99.52    
        99.53       99.54       99.55       99.55       99.56       99.57       99.58       99.58       99.59       99.60    
        99.61       99.62       99.63       99.63       99.64       99.65       99.66       99.67       99.68       99.68    
        99.69       99.70       99.71       99.72       99.73       99.74       99.74       99.75       99.76       99.77    
        99.78       99.78       99.79       99.80       99.80       99.81       99.81       99.82       99.82       99.82    
        99.82    
  96    99.69       99.69       99.68       99.68       99.67       99.67       99.66       99.65       99.64       99.63    
        99.62       99.61       99.60       99.59       99.58       99.57       99.56       99.56       99.55       99.54    
        99.53       99.52       99.52       99.51       99.50       99.50       99.49       99.49       99.48       99.48    
        99.48       99.47       99.47       99.47       99.47       99.46       99.46       99.46       99.46       99.46    
        99.46       99.46       99.47       99.47       99.47       99.47       99.48       99.48       99.48       99.49    
        99.49       99.50       99.50       99.51       99.51       99.52       99.52       99.53       99.53       99.54    
        99.55       99.55       99.56       99.57       99.58       99.58       99.59       99.60       99.61       99.61    
        99.62       99.63       99.64       99.65       99.65       99.66       99.67       99.68       99.69       99.69    
        99.70       99.71       99.72       99.73       99.74       99.74       99.75       99.76       99.77       99.78    
        99.78       99.79       99.80       99.80       99.81       99.81       99.82       99.82       99.83       99.83    
        99.83    
  97    99.70       99.69       99.69       99.69       99.68       99.68       99.67       99.66       99.65       99.64    
        99.63       99.62       99.61       99.61       99.60       99.59       99.58       99.57       99.56       99.55    
        99.55       99.54       99.53       99.53       99.52       99.51       99.51       99.50       99.50       99.50    
        99.49       99.49       99.49       99.48       99.48       99.48       99.48       99.48       99.48       99.48    
        99.48       99.48       99.48       99.48       99.49       99.49       99.49       99.49       99.50       99.50    
        99.51       99.51       99.52       99.52       99.53       99.53       99.54       99.54       99.55       99.55    
        99.56       99.57       99.57       99.58       99.59       99.59       99.60       99.61       99.62       99.62    
        99.63       99.64       99.65       99.66       99.66       99.67       99.68       99.69       99.70       99.70    
        99.71       99.72       99.73       99.74       99.74       99.75       99.76       99.77       99.77       99.78    
        99.79       99.80       99.80       99.81       99.81       99.82       99.82       99.83       99.83       99.83    
        99.83    
  98    99.70       99.70       99.70       99.69       99.69       99.68       99.68       99.67       99.66       99.65    
        99.64       99.63       99.62       99.62       99.61       99.60       99.59       99.58       99.57       99.57    
        99.56       99.55       99.54       99.54       99.53       99.53       99.52       99.52       99.51       99.51    
        99.51       99.50       99.50       99.50       99.50       99.49       99.49       99.49       99.49       99.49    
        99.49       99.49       99.50       99.50       99.50       99.50       99.51       99.51       99.51       99.52    
        99.52       99.52       99.53       99.53       99.54       99.54       99.55       99.55       99.56       99.57    
        99.57       99.58       99.58       99.59       99.60       99.61       99.61       99.62       99.63       99.63    
        99.64       99.65       99.66       99.66       99.67       99.68       99.69       99.69       99.70       99.71    
        99.72       99.73       99.73       99.74       99.75       99.76       99.76       99.77       99.78       99.79    
        99.79       99.80       99.81       99.81       99.82       99.82       99.83       99.83       99.83       99.83    
        99.84    
  99    99.71       99.71       99.70       99.70       99.70       99.69       99.68       99.68       99.67       99.66    
        99.65       99.64       99.63       99.62       99.62       99.61       99.60       99.59       99.58       99.57    
        99.57       99.56       99.55       99.55       99.54       99.54       99.53       99.53       99.52       99.52    
        99.52       99.51       99.51       99.51       99.51       99.51       99.50       99.50       99.50       99.50    
        99.50       99.51       99.51       99.51       99.51       99.51       99.52       99.52       99.52       99.53    
        99.53       99.53       99.54       99.54       99.55       99.55       99.56       99.56       99.57       99.57    
        99.58       99.59       99.59       99.60       99.61       99.61       99.62       99.63       99.63       99.64    
        99.65       99.66       99.66       99.67       99.68       99.69       99.69       99.70       99.71       99.72    
        99.72       99.73       99.74       99.75       99.75       99.76       99.77       99.78       99.78       99.79    
        99.80       99.80       99.81       99.82       99.82       99.83       99.83       99.83       99.84       99.84    
        99.84    
 100    99.71       99.71       99.71       99.70       99.70       99.69       99.69       99.68       99.67       99.66    
        99.66       99.65       99.64       99.63       99.62       99.61       99.60       99.60       99.59       99.58    
        99.57       99.57       99.56       99.55       99.55       99.54       99.54       99.53       99.53       99.53    
        99.52       99.52       99.52       99.52       99.51       99.51       99.51       99.51       99.51       99.51    
        99.51       99.51       99.51       99.52       99.52       99.52       99.52       99.53       99.53       99.53    
        99.54       99.54       99.54       99.55       99.55       99.56       99.56       99.57       99.57       99.58    
        99.59       99.59       99.60       99.61       99.61       99.62       99.63       99.63       99.64       99.65    
        99.65       99.66       99.67       99.68       99.68       99.69       99.70       99.71       99.71       99.72    
        99.73       99.74       99.74       99.75       99.76       99.76       99.77       99.78       99.79       99.79    
        99.80       99.81       99.81       99.82       99.82       99.83       99.83       99.83       99.84       99.84    
        99.84    
 101    99.71       99.71       99.71       99.71       99.70       99.70       99.69       99.68       99.67       99.67    
        99.66       99.65       99.64       99.63       99.62       99.62       99.61       99.60       99.59       99.58    
        99.58       99.57       99.56       99.56       99.55       99.55       99.54       99.54       99.53       99.53    
        99.53       99.52       99.52       99.52       99.52       99.52       99.52       99.52       99.51       99.52    
        99.52       99.52       99.52       99.52       99.52       99.52       99.53       99.53       99.53       99.54    
        99.54       99.54       99.55       99.55       99.56       99.56       99.57       99.57       99.58       99.58    
        99.59       99.60       99.60       99.61       99.61       99.62       99.63       99.63       99.64       99.65    
        99.66       99.66       99.67       99.68       99.68       99.69       99.70       99.71       99.71       99.72    
        99.73       99.74       99.74       99.75       99.76       99.77       99.77       99.78       99.79       99.79    
        99.80       99.81       99.81       99.82       99.82       99.83       99.83       99.84       99.84       99.84    
        99.84    

 HEAD WILL BE SAVED ON UNIT 1014 AT END OF TIME STEP    1, STRESS PERIOD    1


  VOLUME BUDGET FOR ENTIRE MODEL AT END OF TIME STEP    1, STRESS PERIOD   1
  ---------------------------------------------------------------------------------------------------

     CUMULATIVE VOLUME      L**3       RATES FOR THIS TIME STEP      L**3/T          PACKAGE NAME    
     ------------------                 ------------------------                     ----------------

           IN:                                      IN:
           ---                                      ---
                 WEL =           0.0000                   WEL =           0.0000     WEL_0           
                 CHD =         995.4603                   CHD =         995.4603     CHD_0           

            TOTAL IN =         995.4603              TOTAL IN =         995.4603

          OUT:                                     OUT:
          ----                                     ----
                 WEL =        1000.0000                   WEL =        1000.0000     WEL_0           
                 CHD =           0.0000                   CHD =           0.0000     CHD_0           

           TOTAL OUT =        1000.0000             TOTAL OUT =        1000.0000

            IN - OUT =          -4.5397              IN - OUT =          -4.5397

 PERCENT DISCREPANCY =          -0.46     PERCENT DISCREPANCY =          -0.46




         TIME SUMMARY AT END OF TIME STEP    1 IN STRESS PERIOD    1
                    SECONDS     MINUTES      HOURS       DAYS        YEARS
                    -----------------------------------------------------------
   TIME STEP LENGTH  86400.      1440.0      24.000      1.0000     2.73785E-03
 STRESS PERIOD TIME  86400.      1440.0      24.000      1.0000     2.73785E-03
         TOTAL TIME  86400.      1440.0      24.000      1.0000     2.73785E-03


end timestep

